8
molecule "acetic" dataset "non-multireference W4-17" charge 0 multiplicity 1
C          0.00000        0.15507        0.00000
C          1.06033       -0.90799        0.00000
O          0.18752        1.34472        0.00000
O         -1.24158       -0.38499        0.00000
H         -1.85447        0.36127        0.00000
H          2.04002       -0.44154        0.00000
H          0.94246       -1.54002        0.87958
H          0.94246       -1.54002       -0.87958
