7
molecule "allene" dataset "non-multireference W4-17" charge 0 multiplicity 1
C          0.00000        0.00000        0.00000
C          0.00000        0.00000        1.31052
C          0.00000        0.00000       -1.31052
H         -0.92902        0.00000       -1.86606
H          0.92902        0.00000       -1.86606
H          0.00000        0.92902        1.86606
H          0.00000       -0.92902        1.86606
