12
molecule "benzene" dataset "non-multireference W4-17" charge 0 multiplicity 1
C          0.00000        0.00000        1.39495
C          0.00000        1.20806        0.69748
C          0.00000        1.20806       -0.69748
C          0.00000        0.00000       -1.39495
C          0.00000       -1.20806       -0.69748
C          0.00000       -1.20806        0.69748
H          0.00000        0.00000        2.47753
H          0.00000        2.14560        1.23877
H          0.00000        2.14560       -1.23877
H          0.00000        0.00000       -2.47753
H          0.00000       -2.14560       -1.23877
H          0.00000       -2.14560        1.23877
