10
molecule "borole" dataset "non-multireference W4-17" charge 0 multiplicity 1
C          0.00000        1.25165        0.35233
C          0.00000        0.75742       -0.90243
C          0.00000       -0.75742       -0.90243
C          0.00000       -1.25165        0.35233
B          0.00000        0.00000        1.31806
H          0.00000        0.00000        2.50885
H          0.00000        2.30986        0.57250
H          0.00000        1.33210       -1.82151
H          0.00000       -1.33210       -1.82151
H          0.00000       -2.30986        0.57250
