6
molecule "c2clh3" dataset "non-multireference W4-17" charge 0 multiplicity 1
C          1.30333        1.02263        0.00000
C          0.00000        0.75933        0.00000
H          2.04383        0.23544        0.00000
H          1.63465        2.05184        0.00000
H         -0.76735        1.51920        0.00000
Cl        -0.63124       -0.85284        0.00000
