8
molecule "c2h6" dataset "non-multireference W4-17" charge 0 multiplicity 1
C          0.00000        0.76326        0.00000
C          0.00000       -0.76326        0.00000
H         -1.01693        1.15784        0.00000
H          0.50846        1.15784        0.88069
H          0.50846        1.15784       -0.88069
H          1.01693       -1.15784        0.00000
H         -0.50846       -1.15784        0.88069
H         -0.50846       -1.15784       -0.88069
