5
molecule "ch2clf" dataset "non-multireference W4-17" charge 0 multiplicity 1
C          0.00000        0.80293        0.00000
F          1.35855        0.74618        0.00000
H         -0.33665        1.30356        0.90259
Cl        -0.67963       -0.83178        0.00000
H         -0.33665        1.30356       -0.90259
