5
molecule "ch2nh" dataset "non-multireference W4-17" charge 0 multiplicity 1
C          0.05658        0.58765        0.00000
N          0.05658       -0.68651        0.00000
H         -0.90231       -1.03426        0.00000
H         -0.84382        1.20459        0.00000
H          1.01054        1.10932        0.00000
