5
molecule "ch3f" dataset "non-multireference W4-17" charge 0 multiplicity 1
F          0.00000        0.75039        0.00000
C          0.00000       -0.62936        0.00000
H          1.02691       -0.99243        0.00000
H         -0.51345       -0.99243        0.88933
H         -0.51345       -0.99243       -0.88933
