25
molecule "Co(NH3)6" dataset "van Lenthe 2006" charge 3 multiplicity 1
Co         0.00000        0.00000        0.00000
N          0.00000        0.00000        2.03880
N          2.03880        0.00000        0.00000
N          0.00000       -2.03880        0.00000
N         -2.03880       -0.00000        0.00000
N          0.00000        2.03880        0.00000
N          0.00000        0.00000       -2.03880
H         -0.93309        0.00000        2.45889
H          0.46655       -0.80808        2.45889
H          0.46655        0.80808        2.45889
H          2.45889        0.93309       -0.00000
H          2.45889       -0.46655        0.80808
H          2.45889       -0.46655       -0.80808
H          0.93309       -2.45889       -0.00000
H         -0.46655       -2.45889        0.80808
H         -0.46655       -2.45889       -0.80808
H         -2.45889       -0.00000        0.93309
H         -2.45889        0.80808       -0.46655
H         -2.45889       -0.80808       -0.46655
H          0.00000        2.45889       -0.93309
H         -0.80808        2.45889        0.46655
H          0.80808        2.45889        0.46655
H          0.00000       -0.93309       -2.45889
H         -0.80808        0.46655       -2.45889
H          0.80808        0.46655       -2.45889
