19
molecule "Cr(C6H6)(CO)3" dataset "van Lenthe 2006" charge 0 multiplicity 1
Cr         0.00000        0.00000        0.00000
C          1.40873        0.00000        1.76298
C          0.70436        1.21999        1.76298
C         -0.70436        1.21999        1.76298
C         -1.40873        0.00000        1.76298
C         -0.70436       -1.21999        1.76298
C          0.70436       -1.21999        1.76298
H          2.48901        0.00000        1.73376
H          1.24451        2.15555        1.73376
H         -1.24451        2.15555        1.73376
H         -2.48901        0.00000        1.73376
H         -1.24451       -2.15555        1.73376
H          1.24451       -2.15555        1.73376
C          1.50289        0.00000       -1.09290
O          2.43467        0.00000       -1.77049
C         -0.75144       -1.30154       -1.09290
O         -1.21733       -2.10848       -1.77049
C         -0.75144        1.30154       -1.09290
O         -1.21733        2.10848       -1.77049
