13
molecule "Cr(CO)6" dataset "van Lenthe 2006" charge 0 multiplicity 1
Cr         0.00000        0.00000        0.00000
C          0.00000        0.00000        1.92594
C          1.92594        0.00000        0.00000
C          0.00000       -1.92594        0.00000
C         -1.92594       -0.00000        0.00000
C          0.00000        1.92594        0.00000
C          0.00000        0.00000       -1.92594
O          0.00000       -0.00000        3.06666
O          3.06666        0.00000        0.00000
O          0.00000       -3.06666        0.00000
O         -3.06666       -0.00000        0.00000
O          0.00000        3.06666        0.00000
O          0.00000        0.00000       -3.06666
