8
molecule "cyclopropyl" dataset "non-multireference W4-17" charge 0 multiplicity 2
C          0.02881       -0.36472        0.76693
C          0.02881       -0.36472       -0.76693
C          0.02881        0.89019        0.00000
H         -0.87351       -0.65607        1.29189
H          0.94838       -0.68236        1.24379
H         -0.87351       -0.65607       -1.29189
H          0.94838       -0.68236       -1.24379
H         -0.66840        1.71242        0.00000
