12
molecule "cyclobutane" dataset "non-multireference W4-17" charge 0 multiplicity 1
C          0.00000        1.07707        0.14231
C          0.00000       -1.07707        0.14231
C         -1.07707        0.00000       -0.14231
C          1.07707        0.00000       -0.14231
H          0.00000        1.35932        1.19634
H          0.00000       -1.35932        1.19634
H          0.00000        1.97957       -0.46775
H          0.00000       -1.97957       -0.46775
H         -1.35932        0.00000       -1.19634
H          1.35932        0.00000       -1.19634
H         -1.97957        0.00000        0.46775
H          1.97957        0.00000        0.46775
