7
molecule "cyclopropene" dataset "non-multireference W4-17" charge 0 multiplicity 1
C          0.00000        0.00000        0.86342
C          0.00000        0.64859       -0.50069
C          0.00000       -0.64859       -0.50069
H          0.00000        1.57836       -1.03911
H          0.00000       -1.57836       -1.03911
H         -0.91293        0.00000        1.45300
H          0.91293        0.00000        1.45300
