31 
molecule "Fe(C5Me5)(P5)" dataset "BÃ¼hl 2006" charge 0 multiplicity 1
Fe 0.000000 0.000000 0.089494 
C 0.378124 1.164398 -1.632298 
C 1.224255 0.000201 -1.632298 
C 0.378507 -1.164274 -1.632298 
C -0.990325 -0.719762 -1.632298 
C -0.990561 0.719436 -1.632298 
P -0.413627 1.768651 1.627992 
P -1.809905 0.153161 1.627992 
P -0.704956 -1.673993 1.627992 
P 1.374219 -1.187745 1.627992 
P 1.554270 0.939926 1.627992 
C 0.840577 2.585787 -1.716565 
C 2.718982 -0.000384 -1.716565 
C 0.839847 -2.586024 -1.716565 
C -2.199928 -1.597867 -1.716565 
C -2.199477 1.598488 -1.716565 
H 0.142717 3.269116 -1.216938 
H 3.153216 0.874481 -1.216938 
H 1.806078 -2.728658 -1.216938 
H -2.036999 -2.560884 -1.216938 
H -3.065012 1.145944 -1.216938 
H 1.825494 2.718405 -1.252196 
H 3.149465 -0.896115 -1.252196 
H 0.120982 -3.272234 -1.252196 
H -3.074694 -1.126237 -1.252196 
H -2.021248 2.576182 -1.252196 
H 0.922453 2.899592 -2.769817 
H 3.042730 0.018718 -2.769817 
H 0.958057 -2.888024 -2.769817 
H -2.450618 -1.803615 -2.769817 
H -2.472623 1.773328 -2.769817
