17 
molecule "Fe(CO)3(tmm)" dataset "BÃ¼hl 2006" charge 0 multiplicity 1
Fe 0.000000 0.000000 0.015198 
C 0.000000 0.000000 -1.938396 
C 0.000000 -1.394127 -1.614155 
C -1.207349 0.697064 -1.614155 
C 1.207349 0.697064 -1.614155 
H -0.922915 -1.965174 -1.708739 
H 0.922915 -1.965174 -1.708739 
H -1.240433 1.781855 -1.708739 
H -2.163348 0.183319 -1.708739 
H 2.163348 0.183319 -1.708739 
H 1.240433 1.781855 -1.708739 
C 0.000000 1.558543 0.887110 
C 1.349738 -0.779272 0.887110 
C -1.349738 -0.779272 0.887110 
O 0.000000 2.572496 1.441607 
O 2.227847 -1.286248 1.441607 
O -2.227847 -1.286248 1.441607
