15
molecule "Fe(C4H4)(CO)3" dataset "van Lenthe 2006" charge 0 multiplicity 1
Fe         0.00000        0.00000        0.00000
C          1.02436        0.00000        1.78910
C         -1.02436        0.00000        1.78910
C          0.00000        1.02470        1.78910
C          0.00000       -1.02470        1.78910
H          2.09629        0.00000        1.89386
H         -2.09629        0.00000        1.89386
H         -0.00000        2.09663        1.89386
H          0.00000       -2.09663        1.89386
C          1.56467        0.00000       -0.87775
O          2.56283        0.00000       -1.43770
C         -0.78234       -1.35504       -0.87775
O         -1.28142       -2.21948       -1.43770
C         -0.78234        1.35504       -0.87775
O         -1.28142        2.21948       -1.43770
