9 
molecule "Fe(CO)2(NO)2" dataset "BÃ¼hl 2006" charge 0 multiplicity 1
Fe 0.000000 0.000000 0.130071 
C -1.387849 -0.000082 -1.048253 
C 1.387849 0.000082 -1.048253 
N -0.000008 1.463633 0.939560 
N 0.000008 -1.463633 0.939560 
O -2.287724 -0.000113 -1.767031 
O 2.287724 0.000113 -1.767031 
O 0.000152 2.474833 1.519741 
O -0.000152 -2.474833 1.519741
