17
molecule "Fe(C4H6)(CO)3" dataset "van Lenthe 2006" charge 0 multiplicity 1
C          0.71925        0.00000        0.49269
C         -0.71925        0.00000        0.49269
C          1.42071       -0.14610       -0.68900
C         -1.42071       -0.14610       -0.68900
H          2.50254       -0.14442       -0.67542
H          0.95951       -0.26546       -1.65443
H          1.24789        0.11572        1.42867
H         -2.50254       -0.14442       -0.67542
H         -0.95951       -0.26546       -1.65443
H         -1.24789        0.11572        1.42867
Fe         0.00000       -1.93686        0.00000
C          0.00000       -2.56252        1.68681
O          0.00000       -3.06776        2.71559
C         -1.27516       -2.93373       -0.73621
O         -2.09371       -3.58499       -1.20880
C          1.27516       -2.93373       -0.73621
O          2.09371       -3.58499       -1.20880
