21 
molecule "FeCp2" dataset "BÃ¼hl 2006" charge 0 multiplicity 1
Fe 0.000000 0.000000 0.000000 
C 0.000000 1.220080 1.650626 
C -1.160365 0.377025 1.650626 
C -0.717145 -0.987065 1.650626 
C 0.717145 -0.987065 1.650626 
C 1.160365 0.377025 1.650626 
C 0.000000 1.220080 -1.650626 
C 1.160365 0.377025 -1.650626 
C 0.717145 -0.987065 -1.650626 
C -0.717145 -0.987065 -1.650626 
C -1.160365 0.377025 -1.650626 
H 0.000000 2.306051 1.635648 
H -2.193184 0.712609 1.635648 
H -1.355463 -1.865634 1.635648 
H 1.355463 -1.865634 1.635648 
H 2.193184 0.712609 1.635648 
H 0.000000 2.306051 -1.635648 
H 2.193184 0.712609 -1.635648 
H 1.355463 -1.865634 -1.635648 
H -1.355463 -1.865634 -1.635648 
H -2.193184 0.712609 -1.635648
