6
molecule "glyoxal" dataset "non-multireference W4-17" charge 0 multiplicity 1
C         -0.32919        0.68460        0.00000
C          0.32919       -0.68460        0.00000
H         -1.43166        0.67451        0.00000
H          1.43166       -0.67451        0.00000
O          0.32919        1.69671        0.00000
O         -0.32919       -1.69671        0.00000
