13
molecule "Mn(CO)5CN" dataset "van Lenthe 2006" charge 0 multiplicity 1
Mn         0.00000        0.00000        0.00000
C          0.00000        0.00000        2.00985
C          0.00000        0.00000       -1.86131
C          1.88298        0.00000        0.12989
C          0.00000       -1.88298        0.12989
C         -1.88298       -0.00000        0.12989
C          0.00000        1.88298        0.12989
O          3.01080        0.00000        0.24184
O          0.00000       -3.01080        0.24184
O         -3.01080       -0.00000        0.24184
O          0.00000        3.01080        0.24184
O          0.00000        0.00000       -3.00052
N          0.00000       -0.00000        3.16777
