9
molecule "Mn(NO)3CO" dataset "van Lenthe 2006" charge 0 multiplicity 1
Mn         0.00000        0.00000        0.00000
C          0.00000        0.00000        1.86475
N          1.63947        0.00000       -0.40919
N         -0.81974       -1.41983       -0.40919
N         -0.81974        1.41983       -0.40919
O         -0.00000        0.00000        3.00328
O          2.76136       -0.00000       -0.68920
O         -1.38068        2.39141       -0.68920
O         -1.38068       -2.39141       -0.68920
