17 
molecule "MnCp(CO)3" dataset "BÃ¼hl 2006" charge 0 multiplicity 1
Mn -0.052327 0.000886 -0.000048 
C 1.750414 0.890032 -0.802365 
C 1.744652 1.035783 0.625351 
C 1.731170 -0.270325 1.194059 
C 1.728397 -1.226755 0.132675 
C 1.740303 -0.500655 -1.101903 
H 1.758338 1.698311 -1.526423 
H 1.751135 1.971944 1.173776 
H 1.715871 -0.499916 2.255014 
H 1.723877 -2.306060 0.241941 
H 1.735027 -0.935920 -2.096240 
C -1.052023 -0.973104 -1.119982 
C -1.067589 -0.472167 1.395709 
C -1.027996 1.471983 -0.293177 
O -1.675864 -1.617934 -1.857607 
O -1.703616 -0.786574 2.315241 
O -1.633819 2.444143 -0.485783
