17
molecule "n-pentane" dataset "non-multireference W4-17" charge 0 multiplicity 1
C          0.00000        1.27586       -0.52305
C          0.00000        0.00000        0.31542
C          0.00000       -1.27586       -0.52305
C          0.00000       -2.54507        0.32418
C          0.00000        2.54507        0.32418
H          0.00000       -3.43830       -0.30180
H         -0.87719        1.27423       -1.17843
H          0.87719        1.27423       -1.17843
H         -0.88193       -2.58771        0.96661
H          0.88193       -2.58771        0.96661
H          0.87766        0.00000        0.97244
H         -0.87766        0.00000        0.97244
H          0.87719       -1.27423       -1.17843
H         -0.87719       -1.27423       -1.17843
H          0.00000        3.43830       -0.30180
H         -0.88193        2.58771        0.96661
H          0.88193        2.58771        0.96661
