6
molecule "n2h4" dataset "non-multireference W4-17" charge 0 multiplicity 1
N          0.00000        0.71917       -0.07758
N          0.00000       -0.71917       -0.07758
H         -0.21586        1.08538        0.84259
H          0.94208        1.00959       -0.29950
H          0.21586       -1.08538        0.84259
H         -0.94208       -1.00959       -0.29950
