9
molecule "Ni(PH3)2" dataset "van Lenthe 2006" charge 0 multiplicity 1
Ni         0.00000        0.00000        1.00000
P          2.18017        0.00000        1.00000
P         -2.18017        0.00000        1.00000
H          2.91244        0.00000        2.23450
H          2.91244       -1.06911        0.38275
H          2.91244        1.06911        0.38275
H         -2.91244        0.00000       -0.23450
H         -2.91244       -1.06911        1.61725
H         -2.91244        1.06911        1.61725
