5
molecule "oxirene" dataset "non-multireference W4-17" charge 0 multiplicity 1
C          0.00000        0.63552       -0.46295
C          0.00000       -0.63552       -0.46295
H          0.00000       -1.65226       -0.79374
H          0.00000        1.65226       -0.79374
O          0.00000        0.00000        0.89286
