7
molecule "oxirane" dataset "non-multireference W4-17" charge 0 multiplicity 1
O          0.00000        0.00000        0.85441
C          0.00000        0.73229       -0.37309
C          0.00000       -0.73229       -0.37309
H          0.91943        1.26309       -0.58955
H         -0.91943        1.26309       -0.58955
H          0.91943       -1.26309       -0.58955
H         -0.91943       -1.26309       -0.58955
