9
molecule "propene" dataset "non-multireference W4-17" charge 0 multiplicity 1
C         -1.13817       -0.49591        0.00000
C          0.00000        0.48032        0.00000
C          1.29025        0.13620        0.00000
H          1.59274       -0.90472        0.00000
H          2.07351        0.88254        0.00000
H         -0.26171        1.53439        0.00000
H         -0.77191       -1.52297        0.00000
H         -1.77254       -0.35646        0.87820
H         -1.77254       -0.35646       -0.87820
