11
molecule "propane" dataset "non-multireference W4-17" charge 0 multiplicity 1
C          0.00000        1.26579       -0.26097
H         -0.88148        1.29877       -0.90527
H          0.88148        1.29877       -0.90527
H          0.00000        2.16650        0.35462
C          0.00000        0.00000        0.59173
H          0.87549        0.00000        1.24655
H         -0.87549        0.00000        1.24655
C          0.00000       -1.26579       -0.26097
H          0.88148       -1.29877       -0.90527
H          0.00000       -2.16650        0.35462
H         -0.88148       -1.29877       -0.90527
