10
molecule "pyrrole" dataset "non-multireference W4-17" charge 0 multiplicity 1
C          0.00000        1.12282        0.33179
C          0.00000        0.71283       -0.98247
C          0.00000       -0.71283       -0.98247
C          0.00000       -1.12282        0.33179
N          0.00000        0.00000        1.12004
H          0.00000        0.00000        2.12220
H          0.00000        2.10770        0.76586
H          0.00000        1.36063       -1.84302
H          0.00000       -1.36063       -1.84302
H          0.00000       -2.10770        0.76586
