43 
molecule "Sc(acac)3" dataset "BÃ¼hl 2006" charge 0 multiplicity 1
Sc 0.000000 0.000000 0.000000 
C 0.000000 3.540777 0.000000 
C 3.066403 -1.770388 0.000000 
C -3.066403 -1.770388 0.000000 
C 0.620701 2.875529 1.075115 
C 2.179931 -1.975308 1.075115 
C -2.800632 -0.900222 1.075115 
C -0.620701 2.875529 -1.075115 
C -2.179931 -1.975308 -1.075115 
C 2.800632 -0.900222 -1.075115 
O 0.692832 1.602531 1.184875 
O 1.041417 -1.401275 1.184875 
O -1.734249 -0.201256 1.184875 
O -0.692832 1.602531 -1.184875 
O -1.041417 -1.401275 -1.184875 
O 1.734249 -0.201256 -1.184875 
H 0.000000 4.628781 0.000000 
H 4.008642 -2.314391 0.000000 
H -4.008642 -2.314391 0.000000 
C 1.255264 3.675911 2.189555 
C 2.555800 -2.925046 2.189555 
C -3.811064 -0.750865 2.189555 
C -1.255264 3.675911 -2.189555 
C -2.555800 -2.925046 -2.189555 
C 3.811064 -0.750865 -2.189555 
H 1.167445 4.757208 2.035793 
H 3.536141 -3.389641 2.035793 
H -4.703586 -1.367567 2.035793 
H -1.167445 4.757208 -2.035793 
H -3.536141 -3.389641 -2.035793 
H 4.703586 -1.367567 -2.035793 
H 0.782067 3.404276 3.143979 
H 2.557156 -2.379428 3.143979 
H -3.339224 -1.024848 3.143979 
H -0.782067 3.404276 -3.143979 
H -2.557156 -2.379428 -3.143979 
H 3.339224 -1.024848 -3.143979 
H 2.317429 3.404876 2.272149 
H 1.789995 -3.709390 2.272149 
H -4.107423 0.304514 2.272149 
H -2.317429 3.404876 -2.272149 
H -1.789995 -3.709390 -2.272149 
H 4.107423 0.304514 -2.272149
