8
molecule "si2h6" dataset "non-multireference W4-17" charge 0 multiplicity 1
Si         0.00000        1.17088        0.00000
H         -1.38995        1.68512        0.00000
H          0.69546        1.68369        1.20405
H          0.69546        1.68369       -1.20405
Si         0.00000       -1.17088        0.00000
H          1.38995       -1.68512        0.00000
H         -0.69546       -1.68369        1.20405
H         -0.69546       -1.68369       -1.20405
