5
molecule "sih4" dataset "non-multireference W4-17" charge 0 multiplicity 1
H          0.85369        0.85369        0.85369
Si         0.00000        0.00000        0.00000
H         -0.85369       -0.85369        0.85369
H         -0.85369        0.85369       -0.85369
H          0.85369       -0.85369       -0.85369
