11
molecule "silole" dataset "non-multireference W4-17" charge 0 multiplicity 1
C          0.00000        1.35101       -0.08636
H          0.00000        2.42792        0.01104
C          0.00000        0.74315       -1.29421
H          0.00000        1.28080       -2.23671
C          0.00000       -1.35101       -0.08636
H          0.00000       -2.42792        0.01104
C          0.00000       -0.74315       -1.29421
H          0.00000       -1.28080       -2.23671
Si         0.00000        0.00000        1.20531
H          1.20243        0.00000        2.07193
H         -1.20243        0.00000        2.07193
