10
molecule "t-butadiene" dataset "non-multireference W4-17" charge 0 multiplicity 1
C         -0.33024        0.65022        0.00000
C          0.33024       -0.65022        0.00000
C          0.33024        1.81754        0.00000
C         -0.33024       -1.81754        0.00000
H         -1.41617        0.64566        0.00000
H          1.41617       -0.64566        0.00000
H         -0.19356        2.76357        0.00000
H          1.41357        1.84538        0.00000
H          0.19356       -2.76357        0.00000
H         -1.41357       -1.84538        0.00000
