9
molecule "thiophene" dataset "non-multireference W4-17" charge 0 multiplicity 1
C          0.00000        1.23469       -0.00335
C          0.00000        0.71312       -1.26982
C          0.00000       -0.71312       -1.26982
C          0.00000       -1.23469       -0.00335
S          0.00000        0.00000        1.18913
H          0.00000        2.27213        0.28908
H          0.00000        1.32056       -2.16307
H          0.00000       -1.32056       -2.16307
H          0.00000       -2.27213        0.28908
