8 
molecule "TiCl3Me" dataset "BÃ¼hl 2006" charge 0 multiplicity 1
Ti 0.000000 0.000000 0.116538 
Cl 0.000000 2.115907 -0.472447 
Cl -1.832429 -1.057954 -0.472447 
Cl 1.832429 -1.057954 -0.472447 
C 0.000000 0.000000 2.167769 
H 0.902139 0.520850 2.521547 
H 0.000000 -1.041700 2.521547 
H -0.902139 0.520850 2.521547
