19 
molecule "VCp(CO)4" dataset "BÃ¼hl 2006" charge 0 multiplicity 1
V 0.003658 0.041010 0.000000 
C -0.988688 2.128308 0.000000 
C -0.161173 2.021062 1.151741 
C 1.184667 1.847267 0.714111 
C 1.184667 1.847267 -0.714111 
C -0.161173 2.021062 -1.151741 
H -2.065227 2.268910 0.000000 
H -0.495968 2.070335 2.183207 
H 2.056257 1.749228 1.353427 
H 2.056257 1.749228 -1.353427 
H -0.495968 2.070335 -2.183207 
C -1.765418 -0.746026 0.000000 
C -0.098849 -0.926375 -1.671988 
C -0.098849 -0.926375 1.671988 
C 1.560317 -1.104426 0.000000 
O -2.828096 -1.211475 0.000000 
O -0.156132 -1.498615 -2.679799 
O -0.156132 -1.498615 2.679799 
O 2.502981 -1.781344 0.000000
