9
molecule "Zn(CH3)2" dataset "van Lenthe 2006" charge 0 multiplicity 1
Zn        -0.00024        0.00043        0.00000
C         -1.80290       -0.76498        0.00000
C          1.80355        0.76332        0.00000
H         -1.76398       -1.85848        0.00000
H         -2.36279       -0.44795        0.88499
H         -2.36279       -0.44795       -0.88499
H          1.76382        1.85704        0.00000
H          2.36455        0.44722       -0.88459
H          2.36455        0.44722        0.88459
